Circuit: * C:\Users\Kostas\Documents\GitHub\tube_screamer\tube_screamer.asc

C8: both pins shorted together -- ignoring.
Direct Newton iteration failed to find .op point.  (Use ".option noopiter" to skip.)
Starting Gmin stepping
Gmin = 10
Gmin = 1.07374
Gmin = 0.115292
Gmin = 0.0123794
Gmin = 0.00132923
Gmin = 0.000142725
Gmin = 1.5325e-05
Gmin = 1.6455e-06
Gmin = 1.76685e-07
vernier = 0.5
vernier = 0.25
vernier = 0.125
vernier = 0.0625
vernier = 0.03125
vernier = 0.015625
vernier = 0.0078125
Gmin = 2.19567e-07
vernier = 0.0104167
vernier = 0.0138889
Gmin = 2.13838e-07
vernier = 0.0185185
Gmin = 2.05129e-07
vernier = 0.0246913
vernier = 0.0329218
Gmin = 1.91316e-07
vernier = 0.0438957
vernier = 0.0585276
Gmin = 1.71228e-07
vernier = 0.0780367
Gmin = 1.43878e-07
vernier = 0.104049
vernier = 0.138732
Gmin = 1.07609e-07
vernier = 0.184976
vernier = 0.246634
Gmin = 6.79937e-08
vernier = 0.328846
Gmin = 3.33163e-08
vernier = 0.438461
vernier = 0.584614
Gmin = 1.03431e-08
vernier = 0.779486
vernier = 1
Gmin = 1.73148e-09
Gmin = 1.85916e-10
Gmin = 1.99626e-11
Gmin = 2.14347e-12
Gmin = 2.30153e-13
Gmin = 0
Gmin stepping succeeded in finding the operating point.

.step rtone=1000
.step rtone=2000
.step rtone=5000
.step rtone=10000
.step rtone=12000
.step rtone=15000
.step rtone=20000

Date: Fri Apr 17 16:39:03 2020
Total elapsed time: 1.797 seconds.

tnom = 27
temp = 27
method = modified trap
totiter = 6111
traniter = 4806
tranpoints = 2251
accept = 2141
rejected = 110
matrix size = 38
fillins = 55
solver = Normal
Thread vector: 12.2/9.6[2] 4.0/2.9[2] 2.7/2.7[1] 0.3/0.6[1]  2592/500
Matrix Compiler1: 5.18 KB object code size  1.5/0.6/[0.5]
Matrix Compiler2: 4.35 KB object code size  0.6/0.9/[0.4]

