Circuit: * C:\users\kostas777711\My Documents\github\tube_screamer\tube_screamer.asc

C8: both pins shorted together -- ignoring.
WARNING: Node EQ_IN is floating.
WARNING: Node NC_02 is floating.

WARNING: Less than two connections to node EQ_IN.  This node is used by C6.
WARNING: Less than two connections to node NC_02.  This node is used by C17.
Direct Newton iteration failed to find .op point.  (Use ".option noopiter" to skip.)
Starting Gmin stepping
Gmin = 10
Gmin = 1.07374
Gmin = 0.115292
Gmin = 0.0123794
Gmin = 0.00132923
Gmin = 0.000142725
Gmin = 1.5325e-05
Gmin = 1.6455e-06
Gmin = 1.76685e-07
vernier = 0.5
vernier = 0.25
vernier = 0.125
vernier = 0.0625
vernier = 0.03125
vernier = 0.015625
vernier = 0.0078125
Gmin = 2.19567e-07
vernier = 0.0104167
vernier = 0.0138889
Gmin = 2.13838e-07
vernier = 0.0185185
Gmin = 2.05129e-07
vernier = 0.0246913
vernier = 0.0329218
Gmin = 1.91316e-07
vernier = 0.0438957
vernier = 0.0585276
Gmin = 1.71228e-07
vernier = 0.0780367
Gmin = 1.43878e-07
vernier = 0.104049
vernier = 0.138732
Gmin = 1.07609e-07
vernier = 0.184976
vernier = 0.246634
Gmin = 6.79937e-08
vernier = 0.328846
Gmin = 3.33163e-08
vernier = 0.438461
vernier = 0.584614
Gmin = 1.03431e-08
vernier = 0.779486
vernier = 1
Gmin = 1.73148e-09
Gmin = 1.85916e-10
Gmin = 1.99626e-11
Gmin = 2.14347e-12
Gmin = 2.30153e-13
Gmin = 0
Gmin stepping succeeded in finding the operating point.

.step rtone=1000
.step rtone=2000
.step rtone=5000
.step rtone=10000
.step rtone=12000
.step rtone=15000
.step rtone=20000

Date: Mon Apr 20 14:46:18 2020
Total elapsed time: 1.040 seconds.

tnom = 27
temp = 27
method = trap
totiter = 1312
traniter = 0
tranpoints = 0
accept = 0
rejected = 0
matrix size = 60
fillins = 85
solver = Normal
Matrix Compiler1:     467 opcodes
Matrix Compiler2: off  [0.7]/1.3/1.3

