Circuit: * C:\Users\Kostas\Documents\GitHub\tube_screamer\tube_screamer.asc

Direct Newton iteration failed to find .op point.  (Use ".option noopiter" to skip.)
Starting Gmin stepping
Gmin = 10
Gmin = 1.07374
Gmin = 0.115292
Gmin = 0.0123794
Gmin = 0.00132923
Gmin = 0.000142725
Gmin = 1.5325e-05
Gmin = 1.6455e-06
Gmin = 1.76685e-07
vernier = 0.5
vernier = 0.25
vernier = 0.125
vernier = 0.0625
vernier = 0.03125
vernier = 0.015625
vernier = 0.0078125
vernier = 0.00390625
vernier = 0.00195313
Gmin = 2.20748e-07
vernier = 0.00260417
Gmin = 2.19459e-07
vernier = 0.00347222
vernier = 0.00462963
Gmin = 2.17311e-07
vernier = 0.00617283
vernier = 0.00823044
Gmin = 2.13931e-07
vernier = 0.0109739
Gmin = 2.0872e-07
vernier = 0.0146319
vernier = 0.0195092
Gmin = 2.00262e-07
vernier = 0.0260122
vernier = 0.034683
Gmin = 1.87492e-07
vernier = 0.046244
Gmin = 1.69057e-07
vernier = 0.0616586
vernier = 0.0822114
Gmin = 1.42177e-07
vernier = 0.109615
vernier = 0.146154
Gmin = 1.08029e-07
vernier = 0.194871
Gmin = 7.03473e-08
vernier = 0.259828
vernier = 0.346438
Gmin = 3.45908e-08
vernier = 0.461917
vernier = 0.615889
Gmin = 1.14197e-08
vernier = 0.821185
Gmin = 2.10044e-09
vernier = 1
Gmin = 2.25533e-10
Gmin = 2.42164e-11
Gmin = 2.60021e-12
Gmin = 2.79196e-13
Gmin = 0
Gmin stepping succeeded in finding the operating point.

.step rtone=1000
.step rtone=2000
.step rtone=5000
.step rtone=10000
.step rtone=12000
.step rtone=15000
.step rtone=20000

Date: Sat May  2 13:14:33 2020
Total elapsed time: 0.767 seconds.

tnom = 27
temp = 27
method = trap
totiter = 1563
traniter = 0
tranpoints = 0
accept = 0
rejected = 0
matrix size = 60
fillins = 113
solver = Normal
Matrix Compiler1:     531 opcodes
Matrix Compiler2: off  [0.5]/1.1/0.6

